LTspice 24.1.10 for Windows
Circuit: C:\Users\User\Documents\LTspice\Draft1.net
Start Time: Tue Oct 28 09:43:05 2025
solver = Normal
Maximum thread count: 8
tnom = 27
temp = 27
method = trap
Direct Newton iteration for .op point succeeded.
Total elapsed time: 0.217 seconds.

Files loaded:
C:\Users\User\Documents\LTspice\Draft1.net
C:\Users\User\AppData\Local\LTspice\lib\sub\AD8615.sub

